!-Generator eplusr
!-Option SortedOrder

!-NOTE: All comments with '!-' are ignored by the IDFEditor and are generated automatically.
!-      Use '!' comments if they need to be retained when using the IDFEditor.


!-   ===========  ALL OBJECTS IN CLASS: VERSION ===========

Version,
    8.2;                     !- Version Identifier


!-   ===========  ALL OBJECTS IN CLASS: BUILDING ===========

Building,
    Ref Bldg Large Office New2004_v1.3_5.0,  !- Name
    0,                       !- North Axis {deg}
    City,                    !- Terrain
    0.04,                    !- Loads Convergence Tolerance Value
    0.2,                     !- Temperature Convergence Tolerance Value {deltaC}
    FullInteriorAndExterior, !- Solar Distribution
    25,                      !- Maximum Number of Warmup Days
    6;                       !- Minimum Number of Warmup Days


!-   ===========  ALL OBJECTS IN CLASS: SITE:GROUNDDOMAIN ===========

Site:GroundDomain,
    CoupledSlab,             !- Name
    5,                       !- Ground Domain Depth {m}
    1,                       !- Aspect Ratio
    5,                       !- Perimeter Offset {m}
    1.8,                     !- Soil Thermal Conductivity {W/m-K}
    3200,                    !- Soil Density {kg/m3}
    836,                     !- Soil Specific Heat {J/kg-K}
    30,                      !- Soil Moisture Content Volume Fraction {percent}
    50,                      !- Soil Moisture Content Volume Fraction at Saturation {percent}
    15.5,                    !- Kusuda-Achenbach Average Surface Temperature {C}
    12.8,                    !- Kusuda-Achenbach Average Amplitude of Surface Temperature {deltaC}
    17.3,                    !- Kusuda-Achenbach Phase Shift of Minimum Surface Temperature {days}
    1,                       !- Evapotranspiration Ground Cover Parameter
    GroundCoupledOSCM,       !- Slab Boundary Condition Model Name
    OnGrade,                 !- Slab Location
    ,                        !- Slab Material Name
    No,                      !- Horizontal Insulation
    ,                        !- Horizontal Insulation Material Name
    Full,                    !- Horizontal Insulation Extents
    ,                        !- Perimeter Insulation Width {m}
    Yes,                     !- Vertical Insulation
    Insulation,              !- Vertical Insulation Material Name
    1.5,                     !- Vertical Insulation Depth {m}
    Hourly;                  !- Simulation Timestep


!-   ===========  ALL OBJECTS IN CLASS: GLOBALGEOMETRYRULES ===========

GlobalGeometryRules,
    UpperLeftCorner,         !- Starting Vertex Position
    Counterclockwise,        !- Vertex Entry Direction
    Relative,                !- Coordinate System
    Relative;                !- Daylighting Reference Point Coordinate System


!-   ===========  ALL OBJECTS IN CLASS: EVAPORATIVECOOLER:INDIRECT:RESEARCHSPECIAL ===========

EvaporativeCooler:Indirect:ResearchSpecial,
    FURNACE_PACU_CAV:1_OAIndRDD Evap Cooler,  !- Name
    ALWAYS_ON,               !- Availability Schedule Name
    0.7500,                  !- Cooler Maximum Effectiveness
    ,                        !- Cooler Flow Ratio
    30.0000,                 !- Recirculating Water Pump Power Consumption {W}
    Autosize,                !- Secondary Fan Flow Rate {m3/s}
    0.6000,                  !- Secondary Fan Total Efficiency
    124.6000,                !- Secondary Fan Delta Pressure {Pa}
    FURNACE_PACU_CAV:1_OAInlet Node,  !- Primary Air Inlet Node Name
    FURNACE_PACU_CAV:1_OAIndRDD Evap Cooler-FURNACE_PACU_CAV:1_OADirect Evap CoolerNode,  !- Primary Air Outlet Node Name
    ,                        !- Control Type
    0.9000,                  !- Dewpoint Effectiveness Factor
    FURNACE_PACU_CAV:1_OAIndRDD Evap CoolerOA node,  !- Secondary Air Inlet Node Name
    FURNACE_PACU_CAV:1_OADirect Evap Cooler-FURNACE_PACU_CAV:1_OAMixing BoxNode,  !- Sensor Node Name
    ,                        !- Relief Air Inlet Node Name
    ,                        !- Water Supply Storage Tank Name
    0.2,                     !- Drift Loss Fraction
    3;                       !- Blowdown Concentration Ratio


!-   ===========  ALL OBJECTS IN CLASS: EVAPORATIVECOOLER:DIRECT:RESEARCHSPECIAL ===========

EvaporativeCooler:Direct:ResearchSpecial,
    FURNACE_PACU_CAV:1_OADirect Evap Cooler,  !- Name
    ALWAYS_ON,               !- Availability Schedule Name
    0.7,                     !- Cooler Effectiveness
    30.0,                    !- Recirculating Water Pump Power Consumption {W}
    FURNACE_PACU_CAV:1_OAIndRDD Evap Cooler-FURNACE_PACU_CAV:1_OADirect Evap CoolerNode,  !- Air Inlet Node Name
    FURNACE_PACU_CAV:1_OADirect Evap Cooler-FURNACE_PACU_CAV:1_OAMixing BoxNode,  !- Air Outlet Node Name
    FURNACE_PACU_CAV:1_OADirect Evap Cooler-FURNACE_PACU_CAV:1_OAMixing BoxNode,  !- Sensor Node Name
    ,                        !- Water Supply Storage Tank Name
    0.0,                     !- Drift Loss Fraction
    3;                       !- Blowdown Concentration Ratio


!-   ===========  ALL OBJECTS IN CLASS: CHILLER:ELECTRIC:REFORMULATEDEIR ===========

Chiller:Electric:ReformulatedEIR,
    CoolSys1 Chiller 1,      !- Name
    AUTOSIZE,                !- Reference Capacity {W}
    5.5,                     !- Reference COP {W/W}
    6.67,                    !- Reference Leaving Chilled Water Temperature {C}
    35,                      !- Reference Leaving Condenser Water Temperature {C}
    AutoSize,                !- Reference Chilled Water Flow Rate {m3/s}
    AutoSize,                !- Reference Condenser Water Flow Rate {m3/s}
    WC Screw Default 90.1-2004 Cap_fT,  !- Cooling Capacity Function of Temperature Curve Name
    WC Screw Default 90.1-2004 EIR_fT,  !- Electric Input to Cooling Output Ratio Function of Temperature Curve Name
    ReformEIRChiller Carrier 19XR 1259kW/6.26COP/Vanes EIRFPLR,  !- Electric Input to Cooling Output Ratio Function of Part Load Ratio Curve Name
    0.1,                     !- Minimum Part Load Ratio
    1,                       !- Maximum Part Load Ratio
    1,                       !- Optimum Part Load Ratio
    0.2,                     !- Minimum Unloading Ratio
    Pump-CoolSys1 ChillerNode 1,  !- Chilled Water Inlet Node Name
    Supply Equipment Outlet Node 1,  !- Chilled Water Outlet Node Name
    Chiller Water Inlet Node 1,  !- Condenser Inlet Node Name
    Chiller Water Outlet Node 1,  !- Condenser Outlet Node Name
    1,                       !- Fraction of Compressor Electric Consumption Rejected by Condenser
    2,                       !- Leaving Chilled Water Lower Temperature Limit {C}
    LeavingSetpointModulated,!- Chiller Flow Mode Type
    0,                       !- Design Heat Recovery Water Flow Rate {m3/s}
    ,                        !- Heat Recovery Inlet Node Name
    ,                        !- Heat Recovery Outlet Node Name
    0.5;                     !- Sizing Factor


!-   ===========  ALL OBJECTS IN CLASS: GROUNDHEATEXCHANGER:VERTICAL ===========

GroundHeatExchanger:Vertical,
    Vertical Ground Heat Exchanger,  !- Name
    GHE Inlet Node,          !- Inlet Node Name
    GHE Outlet Node,         !- Outlet Node Name
    0.0033,                  !- Maximum Flow Rate {m3/s}
    120,                     !- Number of Bore Holes
    76.2,                    !- Bore Hole Length {m}
    0.063508,                !- Bore Hole Radius {m}
    0.692626,                !- Ground Thermal Conductivity {W/m-K}
    2347000,                 !- Ground Thermal Heat Capacity {J/m3-K}
    13.375,                  !- Ground Temperature {C}
    0.0033,                  !- Design Flow Rate {m3/s}
    0.692626,                !- Grout Thermal Conductivity {W/m-K}
    0.391312,                !- Pipe Thermal Conductivity {W/m-K}
    0.0266667,               !- Pipe Out Diameter {m}
    0.0253977,               !- U-Tube Distance {m}
    0.00241285,              !- Pipe Thickness {m}
    2,                       !- Maximum Length of Simulation
    5e-04,                   !- G-Function Reference Ratio {dimensionless}
    35,                      !- Number of Data Pairs of the G Function
    -15.2996,                !- G-Function Ln(T/Ts) Value 1
    -0.348322;               !- G-Function G Value 1

