!-Generator eplusr
!-Option SortedOrder

!-NOTE: All comments with '!-' are ignored by the IDFEditor and are generated automatically.
!-      Use '!' comments if they need to be retained when using the IDFEditor.


!-   ===========  ALL OBJECTS IN CLASS: VERSION ===========

Version,
    8.8;                     !- Version Identifier


!-   ===========  ALL OBJECTS IN CLASS: SCHEDULE:DAY:INTERVAL ===========

Schedule:Day:Interval,
    DaySchedule5,            !- Name
    Temperature,             !- Schedule Type Limits Name
    Yes,                     !- Interpolate to Timestep
    until: 24:00,            !- Time 1 {hh:mm}
    5;                       !- Value Until Time 1


!-   ===========  ALL OBJECTS IN CLASS: SCHEDULE:DAY:LIST ===========

Schedule:Day:List,
    Example Weather Temp,    !- Name
    Any Number,              !- Schedule Type Limits Name
    Yes,                     !- Interpolate to Timestep
    15,                      !- Minutes per Item
    19.55,                   !- Value 1
    20.1,                    !- N3
    20.65,                   !- N4
    21.2,                    !- N5
    21.25,                   !- N6
    21.3,                    !- N7
    21.35,                   !- N8
    21.4,                    !- N9
    21.25,                   !- N10
    21.1,                    !- N11
    20.95,                   !- N12
    20.8,                    !- N13
    20.625,                  !- N14
    20.45,                   !- N15
    20.275,                  !- N16
    20.1,                    !- N17
    19.95,                   !- N18
    19.8,                    !- N19
    19.65,                   !- N20
    19.5,                    !- N21
    19.625,                  !- N22
    19.75,                   !- N23
    19.875,                  !- N24
    20,                      !- N25
    20.25,                   !- N26
    20.5,                    !- N27
    20.75,                   !- N28
    21,                      !- N29
    21.1,                    !- N30
    21.2,                    !- N31
    21.3,                    !- N32
    21.4,                    !- N33
    21.8,                    !- N34
    22.2,                    !- N35
    22.6,                    !- N36
    23,                      !- N37
    23,                      !- N38
    23,                      !- N39
    23,                      !- N40
    23,                      !- N41
    23.375,                  !- N42
    23.75,                   !- N43
    24.125,                  !- N44
    24.5,                    !- N45
    24.45,                   !- N46
    24.4,                    !- N47
    24.35,                   !- N48
    24.3,                    !- N49
    24.225,                  !- N50
    24.15,                   !- N51
    24.075,                  !- N52
    24,                      !- N53
    23.95,                   !- N54
    23.9,                    !- N55
    23.85,                   !- N56
    23.8,                    !- N57
    23.85,                   !- N58
    23.9,                    !- N59
    23.95,                   !- N60
    24,                      !- N61
    24,                      !- N62
    24,                      !- N63
    24,                      !- N64
    24,                      !- N65
    23.825,                  !- N66
    23.65,                   !- N67
    23.475,                  !- N68
    23.3,                    !- N69
    23.1,                    !- N70
    22.9,                    !- N71
    22.7,                    !- N72
    22.5,                    !- N73
    22.275,                  !- N74
    22.05,                   !- N75
    21.825,                  !- N76
    21.6,                    !- N77
    21.4,                    !- N78
    21.2,                    !- N79
    21,                      !- N80
    20.8,                    !- N81
    20.7,                    !- N82
    20.6,                    !- N83
    20.5,                    !- N84
    20.4,                    !- N85
    20.3,                    !- N86
    20.2,                    !- N87
    20.1,                    !- N88
    20,                      !- N89
    20,                      !- N90
    20,                      !- N91
    20,                      !- N92
    20,                      !- N93
    19.75,                   !- N94
    19.5,                    !- N95
    19.25,                   !- N96
    19;                      !- N97


!-   ===========  ALL OBJECTS IN CLASS: SCHEDULE:COMPACT ===========

Schedule:Compact,
    Kitchen_Flr_5_Case:1_WALKINFREEZER_CaseDefrost2aDaySched,  !- Name
    On/Off,                  !- Schedule Type Limits Name
    Through: 12/31,          !- Field 1
    For:AllDays,             !- Field 2
    Interpolate:Yes,         !- Field 3
    Until: 11:00,            !- Field 4
    0,                       !- Field 5
    Until: 11:20,            !- Field 6
    1,                       !- Field 7
    Until: 23:00,            !- Field 8
    0,                       !- Field 9
    Until: 23:20,            !- Field 10
    1,                       !- Field 11
    Until: 24:00,            !- Field 12
    0;                       !- Field 13


!-   ===========  ALL OBJECTS IN CLASS: ELECTRICEQUIPMENT:ITE:AIRCOOLED ===========

ElectricEquipment:ITE:AirCooled,
    Data Center Servers,     !- Name
    Main Zone,               !- Zone Name
    Watts/Unit,              !- Design Power Input Calculation Method
    500,                     !- Watts per Unit {W}
    100,                     !- Number of Units
    ,                        !- Watts per Zone Floor Area {W/m2}
    Data Center Operation Schedule,  !- Design Power Input Schedule Name
    Data Center CPU Loading Schedule,  !- CPU Loading  Schedule Name
    Data Center Servers Power fLoadTemp,  !- CPU Power Input Function of Loading and Air Temperature Curve Name
    0.4,                     !- Design Fan Power Input Fraction
    1e-04,                   !- Design Fan Air Flow Rate per Power Input {m3/s-W}
    Data Center Servers Airflow fLoadTemp,  !- Air Flow Function of Loading and Air Temperature Curve Name
    ECM FanPower fFlow,      !- Fan Power Input Function of Flow Curve Name
    15,                      !- Design Entering Air Temperature {C}
    A3,                      !- Environmental Class
    AdjustedSupply,          !- Air Inlet Connection Type
    ,                        !- Air Inlet Room Air Model Node Name
    ,                        !- Air Outlet Room Air Model Node Name
    Main Zone Inlet Node,    !- Supply Air Node Name
    0.1,                     !- Design Recirculation Fraction
    Data Center Recirculation fLoadTemp,  !- Recirculation Function of Loading and Supply Temperature Curve Name
    0.9,                     !- Design Electric Power Supply Efficiency
    UPS Efficiency fPLR,     !- Electric Power Supply Efficiency Function of Part Load Ratio Curve Name
    1,                       !- Fraction of Electric Power Supply Losses to Zone
    ITE-CPU,                 !- CPU End-Use Subcategory
    ITE-Fans,                !- Fan End-Use Subcategory
    ITE-UPS;                 !- Electric Power Supply End-Use Subcategory


!-   ===========  ALL OBJECTS IN CLASS: ZONEHVAC:EQUIPMENTCONNECTIONS ===========

ZoneHVAC:EquipmentConnections,
    SPACE1-1,                !- Zone Name
    Zone1Equipment,          !- Zone Conditioning Equipment List Name
    Zone1Inlets,             !- Zone Air Inlet Node or NodeList Name
    Zone 1 Outlet Node,      !- Zone Air Exhaust Node or NodeList Name
    Zone 1 Node,             !- Zone Air Node Name
    Zone 1 Return Node;      !- Zone Return Air Node or NodeList Name


!-   ===========  ALL OBJECTS IN CLASS: BRANCH ===========

Branch,
    Condenser Supply GHE Branch,  !- Name
    ,                        !- Pressure Drop Curve Name
    GroundHeatExchanger:Vertical,  !- Component 1 Object Type
    Vertical Ground Heat Exchanger,  !- Component 1 Name
    GHE Inlet Node,          !- Component 1 Inlet Node Name
    GHE Outlet Node;         !- Component 1 Outlet Node Name


!-   ===========  ALL OBJECTS IN CLASS: GROUNDHEATEXCHANGER:VERTICAL ===========

GroundHeatExchanger:Vertical,
    Vertical Ground Heat Exchanger,  !- Name
    GHE Inlet Node,          !- Inlet Node Name
    GHE Outlet Node,         !- Outlet Node Name
    0.00033,                 !- Design Flow Rate {m3/s}
    24,                      !- Number of Bore Holes
    76.2,                    !- Bore Hole Length {m}
    0.063508,                !- Bore Hole Radius {m}
    0.692626,                !- Ground Thermal Conductivity {W/m-K}
    2347000,                 !- Ground Thermal Heat Capacity {J/m3-K}
    13.375,                  !- Ground Temperature {C}
    0.692626,                !- Grout Thermal Conductivity {W/m-K}
    0.391312,                !- Pipe Thermal Conductivity {W/m-K}
    0.0266667,               !- Pipe Out Diameter {m}
    0.0253977,               !- U-Tube Distance {m}
    0.00241285,              !- Pipe Thickness {m}
    2,                       !- Maximum Length of Simulation {years}
    5e-04,                   !- G-Function Reference Ratio {dimensionless}
    35,                      !- Number of Data Pairs of the G Function
    -15.2996,                !- G-Function Ln(T/Ts) Value 1
    -0.348322,               !- G-Function G Value 1
    -14.201,                 !- G-Function Ln(T/Ts) Value 2
    0.022208,                !- G-Function G Value 2
    -13.2202,                !- G-Function Ln(T/Ts) Value 3
    0.412345,                !- G-Function G Value 3
    -12.2086,                !- G-Function Ln(T/Ts) Value 4
    0.867498,                !- G-Function G Value 4
    -11.1888,                !- G-Function Ln(T/Ts) Value 5
    1.357839,                !- G-Function G Value 5
    -10.1816,                !- G-Function Ln(T/Ts) Value 6
    1.852024,                !- G-Function G Value 6
    -9.1815,                 !- G-Function Ln(T/Ts) Value 7
    2.345656,                !- G-Function G Value 7
    -8.6809,                 !- G-Function Ln(T/Ts) Value 8
    2.593958,                !- G-Function G Value 8
    -8.5,                    !- G-Function Ln(T/Ts) Value 9
    2.679,                   !- G-Function G Value 9
    -7.8,                    !- G-Function Ln(T/Ts) Value 10
    3.023,                   !- G-Function G Value 10
    -7.2,                    !- G-Function Ln(T/Ts) Value 11
    3.32,                    !- G-Function G Value 11
    -6.5,                    !- G-Function Ln(T/Ts) Value 12
    3.681,                   !- G-Function G Value 12
    -5.9,                    !- G-Function Ln(T/Ts) Value 13
    4.071,                   !- G-Function G Value 13
    -5.2,                    !- G-Function Ln(T/Ts) Value 14
    4.828,                   !- G-Function G Value 14
    -4.5,                    !- G-Function Ln(T/Ts) Value 15
    6.253,                   !- G-Function G Value 15
    -3.963,                  !- G-Function Ln(T/Ts) Value 16
    7.894,                   !- G-Function G Value 16
    -3.27,                   !- G-Function Ln(T/Ts) Value 17
    11.82,                   !- G-Function G Value 17
    -2.864,                  !- G-Function Ln(T/Ts) Value 18
    15.117,                  !- G-Function G Value 18
    -2.577,                  !- G-Function Ln(T/Ts) Value 19
    18.006,                  !- G-Function G Value 19
    -2.171,                  !- G-Function Ln(T/Ts) Value 20
    22.887,                  !- G-Function G Value 20
    -1.884,                  !- G-Function Ln(T/Ts) Value 21
    26.924,                  !- G-Function G Value 21
    -1.191,                  !- G-Function Ln(T/Ts) Value 22
    38.004,                  !- G-Function G Value 22
    -0.497,                  !- G-Function Ln(T/Ts) Value 23
    49.919,                  !- G-Function G Value 23
    -0.274,                  !- G-Function Ln(T/Ts) Value 24
    53.407,                  !- G-Function G Value 24
    -0.051,                  !- G-Function Ln(T/Ts) Value 25
    56.632,                  !- G-Function G Value 25
    0.196,                   !- G-Function Ln(T/Ts) Value 26
    59.825,                  !- G-Function G Value 26
    0.419,                   !- G-Function Ln(T/Ts) Value 27
    62.349,                  !- G-Function G Value 27
    0.642,                   !- G-Function Ln(T/Ts) Value 28
    64.524,                  !- G-Function G Value 28
    0.873,                   !- G-Function Ln(T/Ts) Value 29
    66.412,                  !- G-Function G Value 29
    1.112,                   !- G-Function Ln(T/Ts) Value 30
    67.993,                  !- G-Function G Value 30
    1.335,                   !- G-Function Ln(T/Ts) Value 31
    69.162,                  !- G-Function G Value 31
    1.679,                   !- G-Function Ln(T/Ts) Value 32
    70.476,                  !- G-Function G Value 32
    2.028,                   !- G-Function Ln(T/Ts) Value 33
    71.361,                  !- G-Function G Value 33
    2.275,                   !- G-Function Ln(T/Ts) Value 34
    71.79,                   !- G-Function G Value 34
    3.003,                   !- G-Function Ln(T/Ts) Value 35
    72.511;                  !- G-Function G Value 35


!-   ===========  ALL OBJECTS IN CLASS: CONDENSEREQUIPMENTLIST ===========

CondenserEquipmentList,
    All Towers,              !- Name
    GroundHeatExchanger:Vertical,  !- Equipment 1 Object Type
    Vertical Ground Heat Exchanger;  !- Equipment 1 Name

