!-Generator eplusr
!-Option SortedOrder

!-NOTE: All comments with '!-' are ignored by the IDFEditor and are generated automatically.
!-      Use '!' comments if they need to be retained when using the IDFEditor.


!-   ===========  ALL OBJECTS IN CLASS: VERSION ===========

Version,
    9.1;                     !- Version Identifier


!-   ===========  ALL OBJECTS IN CLASS: RUNPERIOD ===========

RunPeriod,
    ,                        !- Name
    1,                       !- Begin Month
    14,                      !- Begin Day of Month
    ,                        !- Begin Year
    1,                       !- End Month
    14,                      !- End Day of Month
    ,                        !- End Year
    Tuesday,                 !- Day of Week for Start Day
    Yes,                     !- Use Weather File Holidays and Special Days
    Yes,                     !- Use Weather File Daylight Saving Period
    No,                      !- Apply Weekend Holiday Rule
    Yes,                     !- Use Weather File Rain Indicators
    Yes;                     !- Use Weather File Snow Indicators

RunPeriod,
    ,                        !- Name
    7,                       !- Begin Month
    7,                       !- Begin Day of Month
    ,                        !- Begin Year
    7,                       !- End Month
    7,                       !- End Day of Month
    ,                        !- End Year
    Tuesday,                 !- Day of Week for Start Day
    Yes,                     !- Use Weather File Holidays and Special Days
    Yes,                     !- Use Weather File Daylight Saving Period
    No,                      !- Apply Weekend Holiday Rule
    Yes,                     !- Use Weather File Rain Indicators
    No;                      !- Use Weather File Snow Indicators


!-   ===========  ALL OBJECTS IN CLASS: ZONEHVAC:EQUIPMENTLIST ===========

ZoneHVAC:EquipmentList,
    Zone1Equipment,          !- Name
    SequentialLoad,          !- Load Distribution Scheme
    ZoneHVAC:PackagedTerminalHeatPump,  !- Zone Equipment 1 Object Type
    Zone1PTHP,               !- Zone Equipment 1 Name
    1,                       !- Zone Equipment 1 Cooling Sequence
    1,                       !- Zone Equipment 1 Heating or No-Load Sequence
    ,                        !- Zone Equipment 1 Sequential Cooling Fraction
    ;                        !- Zone Equipment 1 Sequential Heating Fraction

ZoneHVAC:EquipmentList,
    Zone2Equipment,          !- Name
    SequentialLoad,          !- Load Distribution Scheme
    ZoneHVAC:PackagedTerminalHeatPump,  !- Zone Equipment 1 Object Type
    Zone2PTHP,               !- Zone Equipment 1 Name
    1,                       !- Zone Equipment 1 Cooling Sequence
    1,                       !- Zone Equipment 1 Heating or No-Load Sequence
    ,                        !- Zone Equipment 1 Sequential Cooling Fraction
    ;                        !- Zone Equipment 1 Sequential Heating Fraction

ZoneHVAC:EquipmentList,
    Zone3Equipment,          !- Name
    SequentialLoad,          !- Load Distribution Scheme
    ZoneHVAC:PackagedTerminalHeatPump,  !- Zone Equipment 1 Object Type
    Zone3PTHP,               !- Zone Equipment 1 Name
    1,                       !- Zone Equipment 1 Cooling Sequence
    1,                       !- Zone Equipment 1 Heating or No-Load Sequence
    ,                        !- Zone Equipment 1 Sequential Cooling Fraction
    ;                        !- Zone Equipment 1 Sequential Heating Fraction


!-   ===========  ALL OBJECTS IN CLASS: TABLE:ONEINDEPENDENTVARIABLE ===========

Table:OneIndependentVariable,
    HPACCoolCapFFF,          !- Name
    Quadratic,               !- Curve Type
    EvaluateCurveToLimits,   !- Interpolation Method
    0.5,                     !- Minimum Value of X
    1.5,                     !- Maximum Value of X
    0.8,                     !- Minimum Table Output
    1.5,                     !- Maximum Table Output
    Dimensionless,           !- Input Unit Type for X
    Dimensionless,           !- Output Unit Type
    ,                        !- Normalization Reference
    0,                       !- X Value #1
    0.8,                     !- Output Value #1
    1,                       !- X Value #2
    1,                       !- Output Value #2
    1.5,                     !- X Value #3
    1.1;                     !- Output Value #3

!-   ===========  ALL OBJECTS IN CLASS: TABLE:TWOINDEPENDENTVARIABLES ===========

Table:TwoIndependentVariables,
    HPACCoolCapFT,           !- Name
    BiQuadratic,             !- Curve Type
    EvaluateCurveToLimits,   !- Interpolation Method
    12.77778,                !- Minimum Value of X
    23.88889,                !- Maximum Value of X
    18,                      !- Minimum Value of Y
    46.11111,                !- Maximum Value of Y
    0,                       !- Minimum Table Output
    40000,                   !- Maximum Table Output
    Temperature,             !- Input Unit Type for X
    Temperature,             !- Input Unit Type for Y
    Dimensionless,           !- Output Unit Type
    24999.9597049817,        !- Normalization Reference
    ,                        !- External File Name
    12.77778,                !- X Value #1
    36,                      !- Y Value #1
    19524.15032,             !- Output Value #1
    12.77778,                !- X Value #2
    41,                      !- Y Value #2
    18178.81244,             !- Output Value #2
    12.77778,                !- X Value #3
    46.11111,                !- Y Value #3
    16810.36004,             !- Output Value #3
    15,                      !- X Value #4
    18,                      !- Y Value #4
    25997.3589,              !- Output Value #4
    15,                      !- N20
    30,                      !- N21
    22716.4017,              !- N22
    12.77778,                !- N23
    30,                      !- N24
    21147.21662,             !- N25
    12.77778,                !- N26
    35,                      !- N27
    19794.00525,             !- N28
    15,                      !- N29
    24,                      !- N30
    24352.1562,              !- N31
    12.77778,                !- N32
    18,                      !- N33
    24421.69383,             !- N34
    12.77778,                !- N35
    24,                      !- N36
    22779.73113,             !- N37
    15,                      !- N38
    35,                      !- N39
    21360.49033,             !- N40
    15,                      !- N41
    36,                      !- N42
    21090.0954,              !- N43
    15,                      !- N44
    41,                      !- N45
    19742.05753,             !- N46
    15,                      !- N47
    46.11111,                !- N48
    18370.84513,             !- N49
    18,                      !- N50
    18,                      !- N51
    28392.31868,             !- N52
    23.88889,                !- N53
    41,                      !- N54
    27683.36592,             !- N55
    23.88889,                !- N56
    46.11111,                !- N57
    26301.11353,             !- N58
    18,                      !- N59
    24,                      !- N60
    26742.74198,             !- N61
    18,                      !- N62
    30,                      !- N63
    25102.61348,             !- N64
    23.88889,                !- N65
    35,                      !- N66
    29314.75872,             !- N67
    23.88889,                !- N68
    36,                      !- N69
    29042.2038,              !- N70
    19.44448943,             !- N71
    24,                      !- N72
    28003.546,               !- N73
    19.44448943,             !- N74
    30,                      !- N75
    26361.31143,             !- N76
    18,                      !- N77
    35,                      !- N78
    23743.0571,              !- N79
    18,                      !- N80
    36,                      !- N81
    23471.93318,             !- N82
    18,                      !- N83
    41,                      !- N84
    22120.2503,              !- N85
    18,                      !- N86
    46.11111,                !- N87
    20745.3119,              !- N88
    21,                      !- N89
    18,                      !- N90
    31094.97495,             !- N91
    21,                      !- N92
    24,                      !- N93
    29441.02425,             !- N94
    19.44448943,             !- N95
    18,                      !- N96
    29655.22876,             !- N97
    21,                      !- N98
    30,                      !- N99
    27796.52175,             !- N100
    21,                      !- N101
    35,                      !- N102
    26433.32038,             !- N103
    21,                      !- N104
    36,                      !- N105
    26161.46745,             !- N106
    21,                      !- N107
    41,                      !- N108
    24806.13958,             !- N109
    21,                      !- N110
    46.11111,                !- N111
    23427.47518,             !- N112
    23.88889,                !- N113
    18,                      !- N114
    33988.3473,              !- N115
    23.88889,                !- N116
    24,                      !- N117
    32330.1846,              !- N118
    23.88889,                !- N119
    30,                      !- N120
    30681.4701,              !- N121
    19.44448943,             !- N122
    35,                      !- N123
    25000,                   !- N124
    19.44448943,             !- N125
    36,                      !- N126
    24728.52506,             !- N127
    19.44448943,             !- N128
    41,                      !- N129
    23375.08713,             !- N130
    19.44448943,             !- N131
    46.11111,                !- N132
    21998.35468;             !- N133

!-   ===========  ALL OBJECTS IN CLASS: TABLE:MULTIVARIABLELOOKUP ===========

Table:MultiVariableLookup,
    My5VariableLookupTable,  !- Name
    LagrangeInterpolationLinearExtrapolation,  !- Interpolation Method
    3,                       !- Number of Interpolation Points
    BiQuadratic,             !- Curve Type
    SingleLineIndependentVariableWithMatrix,  !- Table Data Format
    ,                        !- External File Name
    ASCENDING,               !- X1 Sort Order
    DESCENDING,              !- X2 Sort Order
    ,                        !- Normalization Reference
    60,                      !- Minimum Value of X1
    120,                     !- Maximum Value of X1
    0,                       !- Minimum Value of X2
    1,                       !- Maximum Value of X2
    0,                       !- Minimum Value of X3
    1,                       !- Maximum Value of X3
    60,                      !- Minimum Value of X4
    120,                     !- Maximum Value of X4
    30,                      !- Minimum Value of X5
    60,                      !- Maximum Value of X5
    ,                        !- Minimum Value of X6
    ,                        !- Maximum Value of X6
    0,                       !- Minimum Table Output
    10,                      !- Maximum Table Output
    Temperature,             !- Input Unit Type for X1
    Dimensionless,           !- Input Unit Type for X2
    Dimensionless,           !- Input Unit Type for X3
    Temperature,             !- Input Unit Type for X4
    Dimensionless,           !- Input Unit Type for X5
    Dimensionless,           !- Input Unit Type for X6
    Dimensionless,           !- Output Unit Type
    5,                       !- Number of Independent Variables
    5,                       !- Number of Values for Independent Variable X1
    6,                       !- Field 1 Determined by the Number of Independent Variables
    9,                       !- Field 2 Determined by the Number of Independent Variables
    5,                       !- Field 3 Determined by the Number of Independent Variables
    2,                       !- N22
    72,                      !- N23
    74,                      !- N24
    76,                      !- N25
    78,                      !- N26
    80,                      !- N27
    0.400000006,             !- N28
    0.449999988,             !- N29
    0.5,                     !- N30
    0.550000012,             !- N31
    0.599999964,             !- N32
    0.649999976,             !- N33
    0.100000001,             !- N34
    0.199999988,             !- N35
    0.299999982,             !- N36
    0.399999976,             !- N37
    0.49999997,              !- N38
    0.599999964,             !- N39
    0.699999988,             !- N40
    0.799999952,             !- N41
    0.899999976,             !- N42
    75,                      !- N43
    85,                      !- N44
    95,                      !- N45
    105,                     !- N46
    115,                     !- N47
    38.900001526,            !- N48
    58.299999237,            !- N49
    0.100000001,             !- N50
    75,                      !- N51
    38.900001526,            !- N52
    8.362903595,             !- N53
    8.673998833,             !- N54
    8.985898018,             !- N55
    9.311108589,             !- N56
    9.640462875,             !- N57
    8.132709503,             !- N58
    8.430570602,             !- N59
    8.734939575,             !- N60
    9.043934822,             !- N61
    9.37100029,              !- N62
    7.932241917,             !- N63
    8.218854904,             !- N64
    8.503153801,             !- N65
    8.792686462,             !- N66
    9.090137482,             !- N67
    7.745451927,             !- N68
    8.006804466,             !- N69
    8.278247833,             !- N70
    8.558484077,             !- N71
    8.845284462,             !- N72
    7.555707932,             !- N73
    7.807681561,             !- N74
    8.068052292,             !- N75
    8.333242416,             !- N76
    8.604722977,             !- N77
    7.362575054,             !- N78
    7.589694977,             !- N79
    7.834506035,             !- N80
    8.091814995,             !- N81
    8.347365379,             !- N82
    0.199999988,             !- N83
    75,                      !- N84
    38.900001526,            !- N85
    8.009307861,             !- N86
    8.301462173,             !- N87
    8.601654053,             !- N88
    8.909973145,             !- N89
    9.222886086,             !- N90
    7.791565418,             !- N91
    8.070688248,             !- N92
    8.363984108,             !- N93
    8.65114975,              !- N94
    8.960956573,             !- N95
    7.600991249,             !- N96
    7.873175621,             !- N97
    8.143985748,             !- N98
    8.419803619,             !- N99
    8.701591492,             !- N100
    7.423594952,             !- N101
    7.667917728,             !- N102
    7.928957462,             !- N103
    8.195877075,             !- N104
    8.46938324,              !- N105
    7.243413448,             !- N106
    7.482439041,             !- N107
    7.730514526,             !- N108
    7.981428146,             !- N109
    8.239952087,             !- N110
    7.05847168,              !- N111
    7.277166367,             !- N112
    7.5133214,               !- N113
    7.751350403,             !- N114
    7.99594593,              !- N115
    0.299999982,             !- N116
    75,                      !- N117
    38.900001526,            !- N118
    7.685127735,             !- N119
    7.971322536,             !- N120
    8.256714821,             !- N121
    8.544967651,             !- N122
    8.849281311,             !- N123
    7.484996319,             !- N124
    7.747642994,             !- N125
    8.031193733,             !- N126
    8.304456711,             !- N127
    8.598163605,             !- N128
    7.303447723,             !- N129
    7.562814236,             !- N130
    7.820975304,             !- N131
    8.084726334,             !- N132
    8.354193687,             !- N133
    7.135470867,             !- N134
    7.367517948,             !- N135
    7.617700577,             !- N136
    7.870592117,             !- N137
    8.131596565,             !- N138
    6.962431431,             !- N139
    7.190596104,             !- N140
    7.426773548,             !- N141
    7.666893005,             !- N142
    7.912358284,             !- N143
    6.787916183,             !- N144
    6.996275425,             !- N145
    7.221558571,             !- N146
    7.452087879,             !- N147
    7.680626869,             !- N148
    0.399999976,             !- N149
    75,                      !- N150
    38.900001526,            !- N151
    7.39979887,              !- N152
    7.671185017,             !- N153
    7.945892811,             !- N154
    8.224569321,             !- N155
    8.513233185,             !- N156
    7.208674908,             !- N157
    7.458854198,             !- N158
    7.725589275,             !- N159
    7.992704868,             !- N160
    8.270493507,             !- N161
    7.034598827,             !- N162
    7.285416126,             !- N163
    7.530445099,             !- N164
    7.782519341,             !- N165
    8.039845467,             !- N166
    6.876236439,             !- N167
    7.104327679,             !- N168
    7.33442831,              !- N169
    7.577397823,             !- N170
    7.826413631,             !- N171
    6.708562851,             !- N172
    6.927354813,             !- N173
    7.153215885,             !- N174
    7.383201599,             !- N175
    7.618229866,             !- N176
    6.546977043,             !- N177
    6.746573925,             !- N178
    6.957671642,             !- N179
    7.176038742,             !- N180
    7.397747993,             !- N181
    0.49999997,              !- N182
    75,                      !- N183
    38.900001526,            !- N184
    7.145950794,             !- N185
    7.400495052,             !- N186
    7.667282104,             !- N187
    7.932030201,             !- N188
    8.207801819,             !- N189
    6.9576478,               !- N190
    7.198328972,             !- N191
    7.450638294,             !- N192
    7.709997177,             !- N193
    7.973426342,             !- N194
    6.790382385,             !- N195
    7.03071785,              !- N196
    7.266670704,             !- N197
    7.509929657,             !- N198
    7.756206036,             !- N199
    6.638187885,             !- N200
    6.857587814,             !- N201
    7.078690052,             !- N202
    7.311843395,             !- N203
    7.550194263,             !- N204
    6.477313995,             !- N205
    6.687936306,             !- N206
    6.904848099,             !- N207
    7.12588501,              !- N208
    7.351845264,             !- N209
    6.32466507,              !- N210
    6.51508522,              !- N211
    6.717224121,             !- N212
    6.927174091,             !- N213
    7.141005039,             !- N214
    0.599999964,             !- N215
    75,                      !- N216
    38.900001526,            !- N217
    6.90778923,              !- N218
    7.148267746,             !- N219
    7.407217979,             !- N220
    7.666702271,             !- N221
    7.931069374,             !- N222
    6.728770256,             !- N223
    6.960438251,             !- N224
    7.199522972,             !- N225
    7.453735828,             !- N226
    7.702408791,             !- N227
    6.567364693,             !- N228
    6.791221619,             !- N229
    7.026438713,             !- N230
    7.259836197,             !- N231
    7.497921944,             !- N232
    6.419781208,             !- N233
    6.633556366,             !- N234
    6.848979473,             !- N235
    7.06976223,              !- N236
    7.299444199,             !- N237
    6.265988827,             !- N238
    6.468684673,             !- N239
    6.678459644,             !- N240
    6.890955448,             !- N241
    7.108711243,             !- N242
    6.122149467,             !- N243
    6.303151131,             !- N244
    6.497097015,             !- N245
    6.700903416,             !- N246
    6.906543255,             !- N247
    0.699999988,             !- N248
    75,                      !- N249
    38.900001526,            !- N250
    6.68943882,              !- N251
    6.923577785,             !- N252
    7.17202282,              !- N253
    7.42682457,              !- N254
    7.705205441,             !- N255
    6.518424034,             !- N256
    6.74202919,              !- N257
    6.97183466,              !- N258
    7.218411446,             !- N259
    7.457614422,             !- N260
    6.36229229,              !- N261
    6.578548908,             !- N262
    6.803874016,             !- N263
    7.032155991,             !- N264
    7.261574745,             !- N265
    6.220606327,             !- N266
    6.428524494,             !- N267
    6.636671543,             !- N268
    6.846909046,             !- N269
    7.069701672,             !- N270
    6.072504997,             !- N271
    6.268546581,             !- N272
    6.470074654,             !- N273
    6.675432682,             !- N274
    6.88598156,              !- N275
    5.934712887,             !- N276
    6.109331131,             !- N277
    6.293673038,             !- N278
    6.492287636,             !- N279
    6.691280842,             !- N280
    0.799999952,             !- N281
    75,                      !- N282
    38.900001526,            !- N283
    6.489015579,             !- N284
    6.716403484,             !- N285
    6.955620289,             !- N286
    7.22365284,              !- N287
    7.472298145,             !- N288
    6.325336933,             !- N289
    6.541736603,             !- N290
    6.763221741,             !- N291
    6.996306896,             !- N292
    7.233995914,             !- N293
    6.173942089,             !- N294
    6.383189678,             !- N295
    6.602017879,             !- N296
    6.82190752,              !- N297
    7.044112682,             !- N298
    6.037173748,             !- N299
    6.238247871,             !- N300
    6.439656258,             !- N301
    6.643716335,             !- N302
    6.858282089,             !- N303
    5.890603065,             !- N304
    6.083823681,             !- N305
    6.278072834,             !- N306
    6.477452755,             !- N307
    6.680627346,             !- N308
    5.764327049,             !- N309
    5.930488586,             !- N310
    6.10855484,              !- N311
    6.298379898,             !- N312
    6.49066925,              !- N313
    0.899999976,             !- N314
    75,                      !- N315
    38.900001526,            !- N316
    6.303743839,             !- N317
    6.530200481,             !- N318
    6.784637928,             !- N319
    6.991819859,             !- N320
    7.231474876,             !- N321
    6.147313595,             !- N322
    6.356653214,             !- N323
    6.571243286,             !- N324
    6.79353714,              !- N325
    7.027364731,             !- N326
    6.000426292,             !- N327
    6.202982426,             !- N328
    6.414974213,             !- N329
    6.627170086,             !- N330
    6.843828201,             !- N331
    5.867774487,             !- N332
    6.062170506,             !- N333
    6.258625507,             !- N334
    6.460041046,             !- N335
    6.663432121,             !- N336
    5.731920242,             !- N337
    5.912743092,             !- N338
    6.101835251,             !- N339
    6.29545784,              !- N340
    6.491116524,             !- N341
    5.591607571,             !- N342
    5.765592575,             !- N343
    5.942604542,             !- N344
    6.125249863,             !- N345
    6.314370632,             !- N346
    0.100000001,             !- N347
    85,                      !- N348
    38.900001526,            !- N349
    7.259115219,             !- N350
    7.515392303,             !- N351
    7.789088249,             !- N352
    8.064186096,             !- N353
    8.345357895,             !- N354
    7.068078518,             !- N355
    7.315042973,             !- N356
    7.565517902,             !- N357
    7.832796097,             !- N358
    8.10390377,              !- N359
    6.904254436,             !- N360
    7.141640186,             !- N361
    7.382932663,             !- N362
    7.630719185,             !- N363
    7.883708954,             !- N364
    6.740654945,             !- N365
    6.965732098,             !- N366
    7.194357395,             !- N367
    7.430022717,             !- N368
    7.673000336,             !- N369
    6.577650547,             !- N370
    6.79330492,              !- N371
    7.014332771,             !- N372
    7.240844727,             !- N373
    7.471778393,             !- N374
    6.41513443,              !- N375
    6.616100788,             !- N376
    6.822233677,             !- N377
    7.038028717,             !- N378
    7.252334118,             !- N379
    0.199999988,             !- N380
    85,                      !- N381
    38.900001526,            !- N382
    6.885031223,             !- N383
    7.129337311,             !- N384
    7.416170597,             !- N385
    7.677256107,             !- N386
    7.939831257,             !- N387
    6.708860874,             !- N388
    6.941539764,             !- N389
    7.177498817,             !- N390
    7.424939156,             !- N391
    7.677475452,             !- N392
    6.554399967,             !- N393
    6.778627872,             !- N394
    7.005578995,             !- N395
    7.239647865,             !- N396
    7.478278637,             !- N397
    6.402157784,             !- N398
    6.611999512,             !- N399
    6.824309349,             !- N400
    7.050069332,             !- N401
    7.279421806,             !- N402
    6.249315739,             !- N403
    6.454176903,             !- N404
    6.658972263,             !- N405
    6.872204304,             !- N406
    7.090047359,             !- N407
    6.102263927,             !- N408
    6.284310341,             !- N409
    6.475070953,             !- N410
    6.682870865,             !- N411
    6.88354969,              !- N412
    0.299999982,             !- N413
    85,                      !- N414
    38.900001526,            !- N415
    6.557442188,             !- N416
    6.801762104,             !- N417
    7.061593533,             !- N418
    7.288024902,             !- N419
    7.55907774,              !- N420
    6.393248558,             !- N421
    6.612651825,             !- N422
    6.837590218,             !- N423
    7.073652267,             !- N424
    7.316460609,             !- N425
    6.247449875,             !- N426
    6.459414959,             !- N427
    6.676310062,             !- N428
    6.896777153,             !- N429
    7.1232934,               !- N430
    6.103424549,             !- N431
    6.304987431,             !- N432
    6.509762287,             !- N433
    6.717011452,             !- N434
    6.93437767,              !- N435
    5.959203243,             !- N436
    6.152974606,             !- N437
    6.346560478,             !- N438
    6.54888773,              !- N439
    6.755382538,             !- N440
    5.821782112,             !- N441
    5.993262768,             !- N442
    6.174466133,             !- N443
    6.36959362,              !- N444
    6.561481953,             !- N445
    0.399999976,             !- N446
    85,                      !- N447
    38.900001526,            !- N448
    6.267533302,             !- N449
    6.498164654,             !- N450
    6.747991085,             !- N451
    6.986202717,             !- N452
    7.204495907,             !- N453
    6.114499092,             !- N454
    6.323793411,             !- N455
    6.537453175,             !- N456
    6.756989956,             !- N457
    6.991371632,             !- N458
    5.969236374,             !- N459
    6.177954674,             !- N460
    6.384465694,             !- N461
    6.593772888,             !- N462
    6.810007572,             !- N463
    5.838998318,             !- N464
    6.030385017,             !- N465
    6.225597858,             !- N466
    6.421393871,             !- N467
    6.62951231,              !- N468
    5.698288918,             !- N469
    5.886136532,             !- N470
    6.070774078,             !- N471
    6.263503551,             !- N472
    6.460413456,             !- N473
    5.57485199,              !- N474
    5.73515892,              !- N475
    5.912261009,             !- N476
    6.094168186,             !- N477
    6.276163101,             !- N478
    0.49999997,              !- N479
    85,                      !- N480
    38.900001526,            !- N481
    6.009854317,             !- N482
    6.225393772,             !- N483
    6.449347496,             !- N484
    6.6976614,               !- N485
    6.924942493,             !- N486
    5.864756584,             !- N487
    6.06635046,              !- N488
    6.271222115,             !- N489
    6.480144978,             !- N490
    6.699311733,             !- N491
    5.726833344,             !- N492
    5.926858902,             !- N493
    6.124229431,             !- N494
    6.323792934,             !- N495
    6.531667709,             !- N496
    5.602781773,             !- N497
    5.785144329,             !- N498
    5.975097656,             !- N499
    6.165617943,             !- N500
    6.358923912,             !- N501
    5.470835686,             !- N502
    5.647620678,             !- N503
    5.824313164,             !- N504
    6.00918293,              !- N505
    6.19702673,              !- N506
    5.339015961,             !- N507
    5.503248215,             !- N508
    5.674411297,             !- N509